25
 energy: -40.279274838123 gnorm: 0.065606904340 xtb: 6.4.0 (d4b70c2)
H        11.17385784899886   -0.75728274807940   10.57877718710163
C        10.96980448531726   -1.46933245459267    9.79239996019280
C        11.95709644867691   -2.31787451438945    9.31461334719840
C         9.69221498096168   -1.56473765567160    9.26366376295304
H        12.95712135787081   -2.26042744647498    9.72233777815792
C        11.66042683592870   -3.24334141169043    8.32277689256461
C         9.37752448968808   -2.48812999055224    8.27901660363207
S         8.40484130636538   -0.45435284893195    9.87018899579135
H        12.43347024755278   -3.90425638240508    7.95419318172169
C        10.37316389867088   -3.33098503735520    7.80902253098541
H         8.36491327281308   -2.55529600592178    7.90867882574943
C         8.53384461938342    0.95492187923807    8.74968794106049
O         7.10082846170002   -1.10400586389828    9.62263833679945
O         8.80839444749613    0.00524181439187   11.21542279830227
C         7.77548246551569    0.96613758017024    7.58959847017521
C         9.39132900395756    1.99566254185248    9.07043120055716
H         7.09585652471075    0.15195386190132    7.38418744964578
C         7.88738806338335    2.04618788010500    6.72704870361283
H         9.94683069852435    1.96876029256073    9.99657667887868
C         9.49476593967883    3.07014886581366    8.20008204806951
H         7.29688826391776    2.07271586621519    5.82139867806615
C         8.74778339958111    3.09334287888097    7.02955659406038
H        10.15422700993152    3.89307190696973    8.43987015333896
H         8.83064999319121    3.93453679432748    6.35444263693648
H        10.14159593618380   -4.06145980246370    7.04588924444823
